Version 4.1
SHEET 1 2772 1084
WIRE -1824 -640 -1824 -720
WIRE -1824 -640 -1968 -640
WIRE -1680 -640 -1824 -640
WIRE -1456 -640 -1680 -640
WIRE -1312 -640 -1456 -640
WIRE -1216 -640 -1312 -640
WIRE -1680 -608 -1680 -640
WIRE -1216 -608 -1216 -640
WIRE -2384 -560 -2384 -624
WIRE -2288 -560 -2384 -560
WIRE -2192 -560 -2288 -560
WIRE -1312 -560 -1312 -640
WIRE -2384 -544 -2384 -560
WIRE -2288 -544 -2288 -560
WIRE -2192 -544 -2192 -560
WIRE -1456 -528 -1456 -640
WIRE -1216 -512 -1216 -544
WIRE -1680 -496 -1680 -528
WIRE -1680 -496 -1792 -496
WIRE -1792 -464 -1792 -496
WIRE -2384 -448 -2384 -464
WIRE -2288 -448 -2288 -480
WIRE -2288 -448 -2384 -448
WIRE -2192 -448 -2192 -480
WIRE -2192 -448 -2288 -448
WIRE -1680 -448 -1680 -496
WIRE -1312 -400 -1312 -480
WIRE -1248 -400 -1312 -400
WIRE -1056 -400 -1184 -400
WIRE -1008 -400 -1056 -400
WIRE -880 -400 -928 -400
WIRE -736 -400 -880 -400
WIRE -2384 -384 -2384 -448
WIRE -1792 -384 -1792 -400
WIRE -736 -368 -736 -400
WIRE -1312 -352 -1312 -400
WIRE -1056 -352 -1056 -400
WIRE -880 -352 -880 -400
WIRE -1680 -304 -1680 -368
WIRE -1680 -304 -1824 -304
WIRE -1616 -304 -1680 -304
WIRE -1456 -304 -1456 -448
WIRE -1456 -304 -1552 -304
WIRE -1376 -304 -1456 -304
WIRE -1968 -272 -1968 -640
WIRE -1824 -256 -1824 -304
WIRE -1056 -240 -1056 -288
WIRE -880 -240 -880 -288
WIRE -736 -240 -736 -288
WIRE -2576 -224 -2576 -320
WIRE -2576 -224 -2688 -224
WIRE -2432 -224 -2576 -224
WIRE -2320 -224 -2432 -224
WIRE -1680 -160 -1680 -304
WIRE -1312 -160 -1312 -256
WIRE -2688 -144 -2688 -224
WIRE -2576 -144 -2576 -224
WIRE -2432 -144 -2432 -224
WIRE -2320 -144 -2320 -224
WIRE -1968 -112 -1968 -192
WIRE -1824 -112 -1824 -192
WIRE -1824 -112 -1968 -112
WIRE -1744 -112 -1824 -112
WIRE -2432 0 -2432 -64
WIRE -2432 0 -2512 0
WIRE -2688 32 -2688 -64
WIRE -2688 32 -2784 32
WIRE -2656 32 -2688 32
WIRE -2576 32 -2576 -64
WIRE -2576 32 -2592 32
WIRE -2480 32 -2576 32
WIRE -2432 32 -2432 0
WIRE -2416 32 -2432 32
WIRE -2320 32 -2320 -64
WIRE -2320 32 -2352 32
WIRE -2256 32 -2320 32
WIRE -2112 32 -2176 32
WIRE -1680 32 -1680 -64
WIRE -1680 32 -2112 32
WIRE -1568 32 -1680 32
WIRE -1968 80 -1968 -112
WIRE -1824 80 -1824 -112
WIRE -2688 96 -2688 32
WIRE -2320 96 -2320 32
WIRE -2784 112 -2784 32
WIRE -2112 112 -2112 32
WIRE -1680 112 -1680 32
WIRE -1568 128 -1568 32
WIRE -2512 144 -2512 0
WIRE -2512 144 -2624 144
WIRE -2480 144 -2480 32
WIRE -2384 144 -2480 144
WIRE -2784 272 -2784 176
WIRE -2688 272 -2688 192
WIRE -2688 272 -2784 272
WIRE -2320 272 -2320 192
WIRE -2320 272 -2688 272
WIRE -2112 272 -2112 176
WIRE -2112 272 -2320 272
WIRE -1968 272 -1968 160
WIRE -1824 272 -1824 144
WIRE -1824 272 -1968 272
WIRE -1680 272 -1680 192
WIRE -1680 272 -1824 272
WIRE -1568 272 -1568 192
WIRE -1568 272 -1680 272
WIRE -2320 336 -2320 272
WIRE -1680 336 -1680 272
FLAG -1680 336 0
FLAG -1792 -384 0
FLAG -1312 -160 0
FLAG -1056 -240 0
FLAG -880 -240 0
FLAG -736 -240 0
FLAG -1216 -512 0
FLAG -1824 -720 VDD
FLAG -2384 -384 0
FLAG -2384 -624 VDD
FLAG -2576 -320 VDD
FLAG -2112 32 KEY
FLAG -2320 336 0
SYMBOL npn -2624 96 M0
WINDOW 0 29 48 Left 2
WINDOW 3 -58 93 Left 2
SYMATTR InstName Q1
SYMATTR Value BC547C
SYMBOL npn -2384 96 R0
WINDOW 0 36 47 Left 2
WINDOW 3 -57 97 Left 2
SYMATTR InstName Q2
SYMATTR Value BC547C
SYMBOL res -2704 -160 R0
SYMATTR InstName R1
SYMATTR Value 1k
SYMBOL res -2336 -160 R0
SYMATTR InstName R4
SYMATTR Value 470
SYMBOL res -2592 -160 R0
SYMATTR InstName R2
SYMATTR Value 10k
SYMBOL res -2448 -160 R0
SYMATTR InstName R3
SYMATTR Value 10k
SYMBOL polcap -2352 16 R90
WINDOW 0 0 32 VBottom 2
WINDOW 3 32 32 VTop 2
SYMATTR InstName C2
SYMATTR Value 100µ
SYMBOL polcap -2656 48 R270
WINDOW 0 32 32 VTop 2
WINDOW 3 0 32 VBottom 2
SYMATTR InstName C1
SYMATTR Value 100µ
SYMBOL res -1984 -288 R0
SYMATTR InstName R6
SYMATTR Value 150k
SYMBOL res -1984 64 R0
SYMATTR InstName R7
SYMATTR Value 27k
SYMBOL npn2 -1744 -160 R0
SYMATTR InstName Q3
SYMATTR Value 2N2222
SYMBOL ind -1696 -464 R0
SYMATTR InstName L1
SYMATTR Value 1m
SYMBOL res -1696 96 R0
SYMATTR InstName R9
SYMATTR Value 390
SYMBOL cap -1584 128 R0
WINDOW 0 -17 0 Left 2
WINDOW 3 -46 -28 Left 2
SYMATTR InstName C6
SYMATTR Value 100n
SYMATTR SpiceLine Rser=1
SYMBOL cap -1840 80 R0
SYMATTR InstName C4
SYMATTR Value 220p
SYMBOL cap -1808 -464 R0
SYMATTR InstName C3
SYMATTR Value 10n
SYMATTR SpiceLine Rser=0.4
SYMBOL cap -2304 -544 R0
SYMATTR InstName C11
SYMATTR Value 100n
SYMATTR SpiceLine Rser=0.4
SYMBOL cap -1552 -320 R90
WINDOW 0 0 32 VBottom 2
WINDOW 3 32 32 VTop 2
SYMATTR InstName C5
SYMATTR Value 22p
SYMBOL Misc\\xtal -1840 -256 R0
WINDOW 0 -77 -63 Left 2
WINDOW 3 27 0 Left 2
SYMATTR InstName CRYSTAL_27MHz
SYMATTR Value 20f
SYMATTR SpiceLine Rser=30 Lser=2m Cpar=0.87p
SYMBOL cap -1040 -288 R180
WINDOW 0 -40 56 Left 2
WINDOW 3 -54 13 Left 2
SYMATTR InstName C9
SYMATTR Value 330p
SYMBOL cap -864 -288 R180
WINDOW 0 -35 55 Left 2
WINDOW 3 -49 12 Left 2
SYMATTR InstName C10
SYMATTR Value 470p
SYMBOL ind -1024 -384 R270
WINDOW 0 32 56 VTop 2
WINDOW 3 5 56 VBottom 2
SYMATTR InstName L3
SYMATTR Value 160n
SYMATTR SpiceLine Rser=1m
SYMBOL res -1696 -624 R0
SYMATTR InstName R8
SYMATTR Value 1.5k
SYMBOL res -752 -384 R0
SYMATTR InstName Rant1
SYMATTR Value 36
SYMBOL ind -1328 -576 R0
SYMATTR InstName L2
SYMATTR Value 2.7µ
SYMATTR SpiceLine Rser=10m
SYMBOL cap -1184 -416 R90
WINDOW 0 0 32 VBottom 2
WINDOW 3 32 32 VTop 2
SYMATTR InstName C8
SYMATTR Value 100n
SYMBOL npn -1376 -352 R0
SYMATTR InstName Q4
SYMATTR Value BC301
SYMBOL res -1472 -544 R0
SYMATTR InstName R10
SYMATTR Value 33k
SYMBOL cap -1232 -608 R0
SYMATTR InstName C7
SYMATTR Value 22n
SYMBOL LED -2800 112 R0
WINDOW 0 -105 0 Left 2
WINDOW 3 -124 56 Left 2
SYMATTR InstName RED_LED
SYMATTR Value LXZ1-PR01
SYMBOL diode -2128 112 R0
WINDOW 3 -91 66 Left 2
SYMATTR Value 1N4148
SYMATTR InstName D1
SYMBOL res -2160 16 R90
WINDOW 0 0 56 VBottom 2
WINDOW 3 32 56 VTop 2
SYMATTR InstName R5
SYMATTR Value 1k
SYMBOL Misc\\battery -2384 -560 R0
WINDOW 3 25 89 Left 2
WINDOW 123 0 0 Left 0
WINDOW 39 0 0 Left 0
SYMATTR Value 9V
SYMATTR InstName BAT
SYMBOL polcap -2208 -544 R0
SYMATTR InstName C12
SYMATTR Value 100µ
TEXT -712 -376 Left 2 ;27MHz lambda / 4
TEXT -2936 464 Left 2 !.MODEL BC301 NPN( IS=5E-14 NF=1.0 ISE=5E-14 NE=1.5 BF=120 IKF=0.5 VAF=50 NR=1.0 ISC=3E-13 NC=1.2 BR=20 IKR=0.05 VAR=20 RB=1.5 IRB=0.0004 RBM=1.5 RE=0.2 RC=0.1 XTB=0 EG=1.11 XTI=3 CJE=1.2E-10 VJE=0.65 MJE=0.33 TF=1.2E-9 XTF=8 VTF=8 ITF=0.14 PTF=20 CJC=1.5E-11 VJC=0.5 MJC=0.4 XCJC=0.86 TR=1E-7 FC=0.9 Vceo=60 Icrating=1A mfg=Generic)
TEXT -2936 -296 Left 2 ;Astable multivibrator
TEXT -2008 -712 Left 2 ;Oscillator
TEXT -1496 -712 Left 2 ;Power amplifier
TEXT -1104 -488 Left 2 ;PI-Network
TEXT -2944 488 Left 2 !.tran 1
RECTANGLE Normal -2048 304 -2944 -272 4
RECTANGLE Normal -1536 -688 -2016 304 4
RECTANGLE Normal -1152 -688 -1504 -96 4
RECTANGLE Normal -800 -464 -1120 -96 4
