Version 4.1
SHEET 1 4812 680
WIRE 112 -672 112 -736
WIRE 464 -656 464 -688
WIRE -48 -544 -160 -544
WIRE 112 -544 112 -592
WIRE 112 -544 -48 -544
WIRE 240 -544 112 -544
WIRE 368 -544 240 -544
WIRE 464 -544 464 -592
WIRE 464 -544 368 -544
WIRE 240 -528 240 -544
WIRE -160 -480 -160 -544
WIRE 464 -464 464 -544
WIRE 368 -432 368 -544
WIRE 240 -416 240 -448
WIRE 240 -416 128 -416
WIRE 128 -400 128 -416
WIRE -160 -368 -160 -416
WIRE 240 -352 240 -416
WIRE 464 -304 464 -384
WIRE 512 -304 464 -304
WIRE 624 -304 576 -304
WIRE 656 -304 624 -304
WIRE 768 -304 736 -304
WIRE 880 -304 768 -304
WIRE 128 -288 128 -336
WIRE 880 -272 880 -304
WIRE 464 -256 464 -304
WIRE 624 -256 624 -304
WIRE 768 -256 768 -304
WIRE 240 -208 240 -272
WIRE 240 -208 96 -208
WIRE 288 -208 240 -208
WIRE 368 -208 368 -352
WIRE 368 -208 352 -208
WIRE 400 -208 368 -208
WIRE -48 -176 -48 -544
WIRE 96 -160 96 -208
WIRE 624 -144 624 -192
WIRE 768 -144 768 -192
WIRE 880 -144 880 -192
WIRE 240 -64 240 -208
WIRE 464 -64 464 -160
WIRE -48 -16 -48 -96
WIRE 96 -16 96 -96
WIRE 96 -16 -48 -16
WIRE 176 -16 96 -16
WIRE -48 80 -48 -16
WIRE 240 80 240 32
WIRE 352 80 240 80
WIRE 416 80 352 80
WIRE 480 80 416 80
WIRE 512 80 480 80
WIRE 688 80 592 80
WIRE 96 96 96 -16
WIRE 240 128 240 80
WIRE 688 128 688 80
WIRE 352 144 352 80
WIRE 480 144 480 80
WIRE -48 256 -48 160
WIRE 96 256 96 160
WIRE 96 256 -48 256
WIRE 240 256 240 208
WIRE 240 256 96 256
WIRE 352 256 352 208
WIRE 352 256 240 256
WIRE 480 256 480 208
WIRE 480 256 352 256
WIRE 688 256 688 208
WIRE 688 256 480 256
WIRE 240 288 240 256
FLAG 240 288 0
FLAG 112 -736 0
FLAG -160 -368 0
FLAG 128 -288 0
FLAG 464 -64 0
FLAG 624 -144 0
FLAG 768 -144 0
FLAG 880 -144 0
FLAG 464 -688 0
FLAG 416 80 KEY
FLAG -160 -544 VDD
SYMBOL res -64 -192 R0
SYMATTR InstName R1
SYMATTR Value 150k
SYMBOL res -64 64 R0
SYMATTR InstName R2
SYMATTR Value 27k
SYMBOL npn2 176 -64 R0
SYMATTR InstName Q1
SYMATTR Value BF199
SYMBOL ind 224 -368 R0
SYMATTR InstName L1
SYMATTR Value 1m
SYMBOL res 224 112 R0
SYMATTR InstName R3
SYMATTR Value 390
SYMBOL cap 336 144 R0
SYMATTR InstName C2
SYMATTR Value 100n
SYMATTR SpiceLine Rser=1
SYMBOL cap 80 96 R0
SYMATTR InstName C3
SYMATTR Value 220p
SYMBOL cap 112 -400 R0
SYMATTR InstName C4
SYMATTR Value 10n
SYMATTR SpiceLine Rser=0.4
SYMBOL cap -176 -480 R0
SYMATTR InstName C6
SYMATTR Value 100n
SYMATTR SpiceLine Rser=0.4
SYMBOL voltage 112 -576 R180
WINDOW 0 24 96 Left 2
WINDOW 3 24 16 Left 2
WINDOW 123 0 0 Left 0
WINDOW 39 24 68 Left 2
SYMATTR InstName V1
SYMATTR Value 9V
SYMATTR SpiceLine Rser=3
SYMBOL cap 352 -224 R90
WINDOW 0 0 32 VBottom 2
WINDOW 3 32 32 VTop 2
SYMATTR InstName C7
SYMATTR Value 22p
SYMBOL Misc\\xtal 80 -160 R0
SYMATTR InstName C8
SYMATTR Value 20f
SYMATTR SpiceLine Rser=30 Lser=2m Cpar=0.87p
SYMBOL cap 640 -192 R180
WINDOW 0 24 56 Left 2
WINDOW 3 24 8 Left 2
SYMATTR InstName C5
SYMATTR Value 330p
SYMBOL cap 784 -192 R180
WINDOW 0 24 56 Left 2
WINDOW 3 24 8 Left 2
SYMATTR InstName C9
SYMATTR Value 470p
SYMBOL ind 640 -288 R270
WINDOW 0 32 56 VTop 2
WINDOW 3 5 56 VBottom 2
SYMATTR InstName L3
SYMATTR Value 160n
SYMATTR SpiceLine Rser=1m
SYMBOL res 224 -544 R0
SYMATTR InstName R4
SYMATTR Value 1.5k
SYMBOL res 864 -288 R0
SYMATTR InstName Rant
SYMATTR Value 36
SYMBOL ind 448 -480 R0
SYMATTR InstName L4
SYMATTR Value 2.7µ
SYMATTR SpiceLine Rser=10m
SYMBOL cap 576 -320 R90
WINDOW 0 0 32 VBottom 2
WINDOW 3 32 32 VTop 2
SYMATTR InstName C1
SYMATTR Value 100n
SYMBOL npn 400 -256 R0
SYMATTR InstName Q2
SYMATTR Value 2N2222
SYMBOL res 352 -448 R0
SYMATTR InstName R8
SYMATTR Value 33k
SYMBOL cap 448 -656 R0
SYMATTR InstName C10
SYMATTR Value 22n
SYMBOL diode 464 144 R0
SYMATTR InstName D1
SYMATTR Value 1N4148
SYMBOL Misc\\battery 688 112 R0
WINDOW 123 0 0 Left 0
WINDOW 39 0 0 Left 0
SYMATTR InstName V2
SYMATTR Value 2
SYMBOL res 608 64 R90
WINDOW 0 0 56 VBottom 2
WINDOW 3 32 56 VTop 2
SYMATTR InstName R5
SYMATTR Value 1k
TEXT -104 392 Left 2 !.tran 0 401u 400u startup
TEXT -104 424 Left 2 !;.options maxstep=1n
TEXT -112 576 Left 2 !.MODEL 2N3553 NPN BR=5.68 CJE=5.36E-11 EG=1.11 FC=0.5 IKF=0.74 IKR=0.0943 IS=1.93E-14 ISC=4.76E-14 ISE=3.16E-13 ITF=0.134 MJC=0.42 MJE=0.266 MJS=0.33 NC=1.14 NE=1.57 NF=1.01 NR=1.01 RB=8.07 RE=0.0274 VAF=252 VAR=15.8 VJC=0.583 VJE=0.646 VJS=0.75 VTF=0.1 XTB=0 XTI=3 BF=6.53E+01 CJC=3.46E-11 RC=5.18E-01 TF=2.6E-10 XTF=1.0E-01
TEXT -112 536 Left 2 !.MODEL BF199 NPN( IS=4.031E-16 NF=0.9847 ISE=9.187E-17 NE=1.24 BF=122.5 IKF=0.065 VAF=135 NR=0.991 ISC=4.1E-13 NC=1.37 BR=5.036 IKR=0.04 VAR=8 RB=16 IRB=0.0004 RBM=8 RE=0.402 RC=5 XTB=0 EG=1.11 XTI=3 CJE=2.258p VJE=0.444 MJE=0.136 TF=2.92E-10 XTF=8 VTF=8 ITF=0.14 PTF=20 CJC=9.333E-13 VJC=0.2488 MJC=0.1974 XCJC=0.86 TR=35n FC=0.9 Vceo=25 Icrating=25m mfg=Philips)
TEXT -104 456 Left 2 !.meas TRAN teszt AVG (V(n005)*I(Rant))
TEXT 992 -248 Left 2 ;27MHz lambda / 4
