Version 4.1
SHEET 1 4260 680
WIRE 112 -672 112 -736
WIRE -48 -544 -160 -544
WIRE 112 -544 112 -592
WIRE 112 -544 -48 -544
WIRE 240 -544 112 -544
WIRE 464 -544 240 -544
WIRE -160 -480 -160 -544
WIRE 464 -432 464 -544
WIRE 240 -416 240 -544
WIRE 240 -416 128 -416
WIRE 128 -400 128 -416
WIRE -160 -368 -160 -416
WIRE 240 -352 240 -416
WIRE 128 -288 128 -336
WIRE 464 -288 464 -352
WIRE 544 -288 464 -288
WIRE 656 -288 608 -288
WIRE 672 -288 656 -288
WIRE 784 -288 752 -288
WIRE 464 -256 464 -288
WIRE 656 -224 656 -288
WIRE 784 -224 784 -288
WIRE 240 -208 240 -272
WIRE 240 -208 96 -208
WIRE 288 -208 240 -208
WIRE 400 -208 352 -208
WIRE -48 -176 -48 -544
WIRE 96 -160 96 -208
WIRE 464 -128 464 -160
WIRE 656 -128 656 -160
WIRE 784 -128 784 -160
WIRE 240 -64 240 -208
WIRE -48 -16 -48 -96
WIRE 96 -16 96 -96
WIRE 96 -16 -48 -16
WIRE 176 -16 96 -16
WIRE -48 64 -48 -16
WIRE 240 80 240 32
WIRE 352 80 240 80
WIRE 96 96 96 -16
WIRE 240 128 240 80
WIRE 352 144 352 80
WIRE -48 256 -48 144
WIRE 96 256 96 160
WIRE 96 256 -48 256
WIRE 240 256 240 208
WIRE 240 256 96 256
WIRE 352 256 352 208
WIRE 352 256 240 256
WIRE 240 288 240 256
FLAG 240 288 0
FLAG 112 -736 0
FLAG -160 -368 0
FLAG 128 -288 0
FLAG 464 -128 0
FLAG 656 -128 0
FLAG 784 -128 0
SYMBOL res -64 -192 R0
SYMATTR InstName R1
SYMATTR Value 220k
SYMBOL res -64 48 R0
SYMATTR InstName R2
SYMATTR Value 47k
SYMBOL npn2 176 -64 R0
SYMATTR InstName Q1
SYMATTR Value BC547B
SYMBOL ind 224 -368 R0
SYMATTR InstName L1
SYMATTR Value 3.3m
SYMBOL res 224 112 R0
SYMATTR InstName R3
SYMATTR Value 330
SYMBOL cap 336 144 R0
SYMATTR InstName C2
SYMATTR Value 100n
SYMATTR SpiceLine Rser=1
SYMBOL cap 80 96 R0
SYMATTR InstName C3
SYMATTR Value 220p
SYMBOL cap 112 -400 R0
SYMATTR InstName C4
SYMATTR Value 10n
SYMATTR SpiceLine Rser=0.4
SYMBOL cap -176 -480 R0
SYMATTR InstName C6
SYMATTR Value 100n
SYMATTR SpiceLine Rser=0.4
SYMBOL voltage 112 -576 R180
WINDOW 0 24 96 Left 2
WINDOW 3 24 16 Left 2
WINDOW 123 0 0 Left 0
WINDOW 39 24 68 Left 2
SYMATTR InstName V1
SYMATTR Value 9
SYMATTR SpiceLine Rser=3
SYMBOL cap 352 -224 R90
WINDOW 0 0 32 VBottom 2
WINDOW 3 32 32 VTop 2
SYMATTR InstName C7
SYMATTR Value 22p
SYMBOL Misc\\xtal 80 -160 R0
SYMATTR InstName C8
SYMATTR Value 20f
SYMATTR SpiceLine Rser=30 Lser=2m Cpar=0.87p
SYMBOL npn2 400 -256 R0
SYMATTR InstName Q3
SYMATTR Value 2N3553
SYMBOL ind 448 -448 R0
SYMATTR InstName L2
SYMATTR Value 68nH
SYMATTR SpiceLine Rser=1m
SYMBOL cap 608 -304 R90
WINDOW 0 0 32 VBottom 2
WINDOW 3 32 32 VTop 2
SYMATTR InstName C1
SYMATTR Value 100n
SYMBOL cap 672 -160 R180
WINDOW 0 24 56 Left 2
WINDOW 3 24 8 Left 2
SYMATTR InstName C5
SYMATTR Value 330
SYMBOL cap 800 -160 R180
WINDOW 0 24 56 Left 2
WINDOW 3 24 8 Left 2
SYMATTR InstName C9
SYMATTR Value 330
SYMBOL ind 656 -272 R270
WINDOW 0 32 56 VTop 2
WINDOW 3 5 56 VBottom 2
SYMATTR InstName L3
SYMATTR Value 33n
SYMATTR SpiceLine Rser=1m
TEXT -32 400 Left 2 !.tran 0 401u 400u startup
TEXT -16 440 Left 2 !.options maxstep=1n
TEXT -112 576 Left 2 !.MODEL 2N3553 NPN BR=5.68 CJE=5.36E-11 EG=1.11 FC=0.5 IKF=0.74 IKR=0.0943 IS=1.93E-14 ISC=4.76E-14 ISE=3.16E-13 ITF=0.134 MJC=0.42 MJE=0.266 MJS=0.33 NC=1.14 NE=1.57 NF=1.01 NR=1.01 RB=8.07 RE=0.0274 VAF=252 VAR=15.8 VJC=0.583 VJE=0.646 VJS=0.75 VTF=0.1 XTB=0 XTI=3 BF=6.53E+01 CJC=3.46E-11 RC=5.18E-01 TF=2.6E-10 XTF=1.0E-01
