Version 4.1
SHEET 1 1196 680
WIRE 112 -992 112 -1056
WIRE -48 -864 -160 -864
WIRE 112 -864 112 -912
WIRE 112 -864 -48 -864
WIRE 240 -864 112 -864
WIRE -160 -800 -160 -864
WIRE -160 -688 -160 -736
WIRE 240 -624 240 -864
WIRE 240 -624 128 -624
WIRE 128 -608 128 -624
WIRE 240 -560 240 -624
WIRE 128 -496 128 -544
WIRE 240 -400 240 -480
WIRE 240 -400 96 -400
WIRE 288 -400 240 -400
WIRE 400 -400 352 -400
WIRE 400 -352 400 -400
WIRE 96 -240 96 -400
WIRE 400 -224 400 -272
WIRE -48 -176 -48 -864
WIRE 240 -64 240 -400
WIRE -48 -16 -48 -96
WIRE 96 -16 96 -176
WIRE 96 -16 -48 -16
WIRE 176 -16 96 -16
WIRE -48 64 -48 -16
WIRE 240 80 240 32
WIRE 352 80 240 80
WIRE 96 96 96 -16
WIRE 240 128 240 80
WIRE 352 144 352 80
WIRE -48 256 -48 144
WIRE 96 256 96 160
WIRE 96 256 -48 256
WIRE 240 256 240 208
WIRE 240 256 96 256
WIRE 352 256 352 208
WIRE 352 256 240 256
WIRE 240 288 240 256
FLAG 240 288 0
FLAG 112 -1056 0
FLAG -160 -688 0
FLAG 128 -496 0
FLAG 400 -224 0
SYMBOL res -64 -192 R0
SYMATTR InstName R1
SYMATTR Value 220k
SYMBOL res -64 48 R0
SYMATTR InstName R2
SYMATTR Value 47k
SYMBOL npn2 176 -64 R0
SYMATTR InstName Q1
SYMATTR Value BC547B
SYMBOL ind 224 -576 R0
SYMATTR InstName L1
SYMATTR Value 3.3m
SYMBOL res 224 112 R0
SYMATTR InstName R3
SYMATTR Value 330
SYMBOL cap 336 144 R0
SYMATTR InstName C2
SYMATTR Value 100n
SYMATTR SpiceLine Rser=1
SYMBOL cap 80 96 R0
SYMATTR InstName C3
SYMATTR Value 220p
SYMBOL cap 112 -608 R0
SYMATTR InstName C4
SYMATTR Value 10n
SYMATTR SpiceLine Rser=0.4
SYMBOL cap -176 -800 R0
SYMATTR InstName C6
SYMATTR Value 100n
SYMATTR SpiceLine Rser=0.4
SYMBOL voltage 112 -896 R180
WINDOW 0 24 96 Left 2
WINDOW 3 24 16 Left 2
WINDOW 123 0 0 Left 0
WINDOW 39 24 68 Left 2
SYMATTR InstName V1
SYMATTR Value 9
SYMATTR SpiceLine Rser=3
SYMBOL cap 352 -416 R90
WINDOW 0 0 32 VBottom 2
WINDOW 3 32 32 VTop 2
SYMATTR InstName C7
SYMATTR Value 22p
SYMBOL res 384 -368 R0
SYMATTR InstName R6
SYMATTR Value 100
SYMBOL Misc\\xtal 80 -240 R0
SYMATTR InstName C8
SYMATTR Value 20f
SYMATTR SpiceLine Rser=30 Lser=2m Cpar=0.87p
TEXT -32 400 Left 2 !.tran 0 401u 400u startup
TEXT -16 440 Left 2 !.options maxstep=1n
